
 OpenBabel03172316453D

 12 11  0  0  0  0  0  0  0  0999 V2000
    1.4902   -0.6324    2.0233 C   0  0  0  0  0  0  0  0  0  0  0  0
    0.4066    0.2568    1.4186 C   0  0  0  0  0  0  0  0  0  0  0  0
   -0.9644   -0.4318    1.6279 C   0  0  0  0  0  0  0  0  0  0  0  0
    0.3979    1.5771    1.8972 O   0  0  0  0  0  0  0  0  0  0  0  0
   -1.9535    0.0581    0.7697 O   0  0  0  0  0  0  0  0  0  0  0  0
    2.0536   -0.3746    3.0601 O   0  0  0  0  0  0  0  0  0  0  0  0
    1.7320   -1.5500    1.4638 H   0  0  0  0  0  0  0  0  0  0  0  0
    0.6171    0.4078    0.3338 H   0  0  0  0  0  0  0  0  0  0  0  0
   -1.2902   -0.3483    2.6837 H   0  0  0  0  0  0  0  0  0  0  0  0
   -0.9132   -1.5036    1.3685 H   0  0  0  0  0  0  0  0  0  0  0  0
    0.4359    1.5450    2.8460 H   0  0  0  0  0  0  0  0  0  0  0  0
   -2.0121    0.9960    0.9075 H   0  0  0  0  0  0  0  0  0  0  0  0
  1  2  1  0  0  0  0
  1  6  2  0  0  0  0
  1  7  1  0  0  0  0
  2  3  1  0  0  0  0
  2  4  1  0  0  0  0
  2  8  1  0  0  0  0
  3  5  1  0  0  0  0
  3  9  1  0  0  0  0
  3 10  1  0  0  0  0
  4 11  1  0  0  0  0
  5 12  1  0  0  0  0
M  END
$$$$
