
 OpenBabel02282311013D

 16 17  0  0  0  0  0  0  0  0999 V2000
  -11.8656    4.6398    0.8333 N   0  0  0  0  0  0  0  0  0  0  0  0
  -10.5520    5.0637    0.8240 C   0  0  0  0  0  0  0  0  0  0  0  0
   -9.6776    4.0932    0.8721 N   0  0  0  0  0  0  0  0  0  0  0  0
  -10.4571    2.9367    0.9131 C   0  0  0  0  0  0  0  0  0  0  0  0
  -10.0726    1.5773    0.9703 C   0  0  0  0  0  0  0  0  0  0  0  0
   -8.9434    1.0909    0.9974 O   0  0  0  0  0  0  0  0  0  0  0  0
  -11.1930    0.7270    0.9992 N   0  0  0  0  0  0  0  0  0  0  0  0
  -12.5070    1.1471    0.9817 C   0  0  0  0  0  0  0  0  0  0  0  0
  -13.4335    0.1867    1.0202 N   0  0  0  0  0  0  0  0  0  0  0  0
  -12.8706    2.4255    0.9201 N   0  0  0  0  0  0  0  0  0  0  0  0
  -11.8015    3.2655    0.8888 C   0  0  0  0  0  0  0  0  0  0  0  0
  -10.2692    6.1153    0.7807 H   0  0  0  0  0  0  0  0  0  0  0  0
  -11.0239   -0.2580    1.0357 H   0  0  0  0  0  0  0  0  0  0  0  0
  -14.4339    0.4326    1.0023 H   0  0  0  0  0  0  0  0  0  0  0  0
  -13.1492   -0.8037    1.0683 H   0  0  0  0  0  0  0  0  0  0  0  0
  -12.6748    5.1999    0.8061 H   0  0  0  0  0  0  0  0  0  0  0  0
  1 16  1  0  0  0  0
  2  1  1  0  0  0  0
  3  4  1  0  0  0  0
  3  2  2  0  0  0  0
  4 11  2  0  0  0  0
  5  4  1  0  0  0  0
  5  7  1  0  0  0  0
  6  5  2  0  0  0  0
  7  8  1  0  0  0  0
  8 10  2  0  0  0  0
  8  9  1  0  0  0  0
  9 14  1  0  0  0  0
 11  1  1  0  0  0  0
 11 10  1  0  0  0  0
 12  2  1  0  0  0  0
 13  7  1  0  0  0  0
 15  9  1  0  0  0  0
M  END
$$$$
