
 OpenBabel03032311353D

 20 20  0  0  1  0  0  0  0  0999 V2000
    1.1676    1.0536    0.0083 C   0  0  2  0  0  0  0  0  0  0  0  0
    0.0585    1.7754   -0.5773 O   0  0  0  0  0  0  0  0  0  0  0  0
   -1.0553    0.9783   -1.0048 C   0  0  0  0  0  0  0  0  0  0  0  0
   -1.6416    0.1734    0.1744 C   0  0  1  0  0  0  0  0  0  0  0  0
   -0.5173   -0.7339    0.7471 C   0  0  1  0  0  0  0  0  0  0  0  0
    0.7056    0.1140    1.1576 C   0  0  2  0  0  0  0  0  0  0  0  0
    0.3489    0.9937    2.2339 O   0  0  0  0  0  0  0  0  0  0  0  0
   -0.9876   -1.3120    1.9706 O   0  0  0  0  0  0  0  0  0  0  0  0
   -2.1572    1.0575    1.1518 O   0  0  0  0  0  0  0  0  0  0  0  0
    1.9910    2.0705    0.4968 O   0  0  0  0  0  0  0  0  0  0  0  0
   -0.7518    0.3422   -1.8513 H   0  0  0  0  0  0  0  0  0  0  0  0
   -1.7663    1.7557   -1.3524 H   0  0  0  0  0  0  0  0  0  0  0  0
    1.7460    0.5430   -0.7864 H   0  0  0  0  0  0  0  0  0  0  0  0
    1.5471   -0.5220    1.5121 H   0  0  0  0  0  0  0  0  0  0  0  0
   -0.2400   -1.5254    0.0217 H   0  0  0  0  0  0  0  0  0  0  0  0
   -2.5324   -0.4261   -0.1177 H   0  0  0  0  0  0  0  0  0  0  0  0
    1.5117    2.6010    1.1930 H   0  0  0  0  0  0  0  0  0  0  0  0
   -0.1956    0.4862    2.8994 H   0  0  0  0  0  0  0  0  0  0  0  0
   -1.0476   -2.2839    1.9008 H   0  0  0  0  0  0  0  0  0  0  0  0
   -1.4312    1.6764    1.4624 H   0  0  0  0  0  0  0  0  0  0  0  0
  1 10  1  0  0  0  0
  1  6  1  1  0  0  0
  2  1  1  0  0  0  0
  3  2  1  0  0  0  0
  3  4  1  0  0  0  0
  4  5  1  1  0  0  0
  4  9  1  0  0  0  0
  5  6  1  1  0  0  0
  5  8  1  0  0  0  0
  6 14  1  1  0  0  0
  6  7  1  0  0  0  0
  7 18  1  0  0  0  0
  9 20  1  0  0  0  0
 10 17  1  0  0  0  0
 11  3  1  0  0  0  0
 12  3  1  0  0  0  0
 13  1  1  0  0  0  0
 15  5  1  0  0  0  0
 16  4  1  0  0  0  0
 19  8  1  0  0  0  0
M  END
$$$$
